data/mat/ieee39.m
function mpc = ieee39

%ieee39 MATPOWER case generated from D:/codex/elec_power_flow/hybrid_power_system_analysis/data/model/ac/ieee39.e

% Auto-generated by scripts/generate_matpower_cases.py.

% ZIP loads are exported as static P/Q at V=1; zero-impedance ties are bus-collapsed.

mpc.version = '2';

mpc.baseMVA = 100;

mpc.bus = [
	1	1	97.59999999999999	44.2	0	0	1	1.0393836	-13.536602	345	1	1.2	0.8;
	2	1	0	0	0	0	1	1.0484941	-9.785266600000002	345	1	1.2	0.8;
	3	1	322	2.4	0	0	1	1.0307077	-12.276384	345	1	1.2	0.8;
	4	1	500	184	0	0	1	1.00446	-12.626734	345	1	1.2	0.8;
	5	1	0	0	0	0	1	1.0060063	-11.192339	345	1	1.2	0.8;
	6	1	0	0	0	0	1	1.0082256	-10.40833	345	1	1.2	0.8;
	7	1	233.8	84	0	0	1	0.9983972799999999	-12.755626	345	1	1.2	0.8;
	8	1	522	176.6	0	0	1	0.99787232	-13.335844	345	1	1.2	0.8;
	9	1	6.5	-66.59999999999999	0	0	1	1.038332	-14.178442	345	1	1.2	0.8;
	10	1	0	0	0	0	1	1.0178431	-8.170875000000001	345	1	1.2	0.8;
	11	1	0	0	0	0	1	1.0133858	-8.9369663	345	1	1.2	0.8;
	12	1	8.529999999999999	88	0	0	1	1.000815	-8.9988236	345	1	1.2	0.8;
	13	1	0	0	0	0	1	1.014923	-8.9299272	345	1	1.2	0.8;
	14	1	0	0	0	0	1	1.012319	-10.715295	345	1	1.2	0.8;
	15	1	320	153	0	0	1	1.0161854	-11.345399	345	1	1.2	0.8;
	16	1	329	32.3	0	0	1	1.0325203	-10.033348	345	1	1.2	0.8;
	17	1	0	0	0	0	1	1.0342365	-11.116436	345	1	1.2	0.8;
	18	1	158	30	0	0	1	1.0315726	-11.986168	345	1	1.2	0.8;
	19	1	0	0	0	0	1	1.0501068	-5.4100729	345	1	1.2	0.8;
	20	1	680	103	0	0	1	0.9910105400000001	-6.821178300000001	345	1	1.2	0.8;
	21	1	274	115	0	0	1	1.0323192	-7.628746100000001	345	1	1.2	0.8;
	22	1	0	0	0	0	1	1.0501427	-3.1831199	345	1	1.2	0.8;
	23	1	247.5	84.59999999999999	0	0	1	1.0451451	-3.3812763	345	1	1.2	0.8;
	24	1	308.6	-92.2	0	0	1	1.038001	-9.9137585	345	1	1.2	0.8;
	25	1	224	47.2	0	0	1	1.0576827	-8.369235400000003	345	1	1.2	0.8;
	26	1	139	17	0	0	1	1.0525613	-9.438769600000001	345	1	1.2	0.8;
	27	1	281	75.5	0	0	1	1.0383449	-11.362152	345	1	1.2	0.8;
	28	1	206	27.6	0	0	1	1.0503737	-5.9283592	345	1	1.2	0.8;
	29	1	283.5	26.9	0	0	1	1.0501149	-3.1698741	345	1	1.2	0.8;
	30	2	0	0	0	0	1	1.0499	-7.370474600000001	345	1	1.2	0.8;
	31	3	9.199999999999999	4.6	0	0	1	0.9820000000000001	0	345	1	1.2	0.8;
	32	2	0	0	0	0	1	0.9841	-0.1884374	345	1	1.2	0.8;
	33	2	0	0	0	0	1	0.9972	-0.19317445	345	1	1.2	0.8;
	34	2	0	0	0	0	1	1.0123	-1.631119	345	1	1.2	0.8;
	35	2	0	0	0	0	1	1.0494	1.7765069	345	1	1.2	0.8;
	36	2	0	0	0	0	1	1.0636	4.4684374	345	1	1.2	0.8;
	37	2	0	0	0	0	1	1.0275	-1.5828988	345	1	1.2	0.8;
	38	2	0	0	0	0	1	1.0265	3.8928177	345	1	1.2	0.8;
	39	2	1104	250	0	0	1	1.03	-14.535256	345	1	1.2	0.8;
];

mpc.gen = [
	30	250	161.762	1000000000	-1000000000	1.0499	100	1	1000000000	-1000000000	0	0	0	0	0	0	0	0	0	0	0;
	31	677.871	221.574	1000000000	-1000000000	0.9820000000000001	100	1	1000000000	-1000000000	0	0	0	0	0	0	0	0	0	0	0;
	32	650	206.965	1000000000	-1000000000	0.9841	100	1	1000000000	-1000000000	0	0	0	0	0	0	0	0	0	0	0;
	33	632	108.293	1000000000	-1000000000	0.9972	100	1	1000000000	-1000000000	0	0	0	0	0	0	0	0	0	0	0;
	34	508	166.688	1000000000	-1000000000	1.0123	100	1	1000000000	-1000000000	0	0	0	0	0	0	0	0	0	0	0;
	35	650	210.661	1000000000	-1000000000	1.0494	100	1	1000000000	-1000000000	0	0	0	0	0	0	0	0	0	0	0;
	36	560	100.165	1000000000	-1000000000	1.0636	100	1	1000000000	-1000000000	0	0	0	0	0	0	0	0	0	0	0;
	37	540	-1.36945	1000000000	-1000000000	1.0275	100	1	1000000000	-1000000000	0	0	0	0	0	0	0	0	0	0	0;
	38	830.0000000000001	21.7327	1000000000	-1000000000	1.0265	100	1	1000000000	-1000000000	0	0	0	0	0	0	0	0	0	0	0;
	39	1000	78.4674	1000000000	-1000000000	1.03	100	1	1000000000	-1000000000	0	0	0	0	0	0	0	0	0	0	0;
];

mpc.branch = [
	1	2	0.0035	0.0411	0.6987	0	0	0	0	0	1	-360	360;
	1	39	0.001	0.025	0.75	0	0	0	0	0	1	-360	360;
	2	3	0.0013	0.0151	0.2572	0	0	0	0	0	1	-360	360;
	2	25	0.007	0.0086	0.146	0	0	0	0	0	1	-360	360;
	3	4	0.0013	0.0213	0.2214	0	0	0	0	0	1	-360	360;
	3	18	0.0011	0.0133	0.2138	0	0	0	0	0	1	-360	360;
	4	5	0.0008	0.0128	0.1342	0	0	0	0	0	1	-360	360;
	4	14	0.0008	0.0129	0.1382	0	0	0	0	0	1	-360	360;
	5	6	0.0002	0.0026	0.0434	0	0	0	0	0	1	-360	360;
	5	8	0.0008	0.0112	0.1476	0	0	0	0	0	1	-360	360;
	6	7	0.0005999999999999999	0.0092	0.113	0	0	0	0	0	1	-360	360;
	6	11	0.0007	0.008200000000000001	0.1389	0	0	0	0	0	1	-360	360;
	7	8	0.0004	0.0046	0.078	0	0	0	0	0	1	-360	360;
	8	9	0.0023	0.0363	0.3804	0	0	0	0	0	1	-360	360;
	9	39	0.001	0.025	1.2	0	0	0	0	0	1	-360	360;
	10	11	0.0004	0.0043	0.07290000000000001	0	0	0	0	0	1	-360	360;
	10	13	0.0004	0.0043	0.07290000000000001	0	0	0	0	0	1	-360	360;
	13	14	0.0009	0.0101	0.1723	0	0	0	0	0	1	-360	360;
	14	15	0.0018	0.0217	0.366	0	0	0	0	0	1	-360	360;
	15	16	0.0009	0.0094	0.171	0	0	0	0	0	1	-360	360;
	16	17	0.0007	0.0089	0.1342	0	0	0	0	0	1	-360	360;
	16	19	0.0016	0.0195	0.304	0	0	0	0	0	1	-360	360;
	16	21	0.0008	0.0135	0.2548	0	0	0	0	0	1	-360	360;
	16	24	0.0003	0.0059	0.068	0	0	0	0	0	1	-360	360;
	17	18	0.0007	0.008200000000000001	0.1319	0	0	0	0	0	1	-360	360;
	17	27	0.0013	0.0173	0.3216	0	0	0	0	0	1	-360	360;
	21	22	0.0008	0.014	0.2565	0	0	0	0	0	1	-360	360;
	22	23	0.0005999999999999999	0.009599999999999999	0.1846	0	0	0	0	0	1	-360	360;
	23	24	0.0022	0.035	0.361	0	0	0	0	0	1	-360	360;
	23	36	0.0005	0.0272	0	0	0	0	0	0	1	-360	360;
	25	26	0.0032	0.0323	0.531	0	0	0	0	0	1	-360	360;
	26	27	0.0014	0.0147	0.2396	0	0	0	0	0	1	-360	360;
	26	28	0.0043	0.0474	0.7802	0	0	0	0	0	1	-360	360;
	26	29	0.0057	0.0625	1.029	0	0	0	0	0	1	-360	360;
	28	29	0.0014	0.0151	0.249	0	0	0	0	0	1	-360	360;
	2	30	0	0.0181	0	0	0	0	1.025	0	1	-360	360;
	6	31	0	0.025	0	0	0	0	1.07	0	1	-360	360;
	10	32	0	0.02	0	0	0	0	1.07	0	1	-360	360;
	12	11	0.0016	0.0435	0	0	0	0	1.006	0	1	-360	360;
	12	13	0.0016	0.0435	0	0	0	0	1.006	0	1	-360	360;
	19	20	0.0007	0.0138	0	0	0	0	1.06	0	1	-360	360;
	19	33	0.0007	0.0142	0	0	0	0	1.07	0	1	-360	360;
	20	34	0.0009	0.018	0	0	0	0	1.009	0	1	-360	360;
	22	35	0	0.0143	0	0	0	0	1.025	0	1	-360	360;
	25	37	0.0005999999999999999	0.0232	0	0	0	0	1.025	0	1	-360	360;
	29	38	0.0008	0.0156	0	0	0	0	1.025	0	1	-360	360;
];
